<?xml version="1.0" encoding="UTF-8"?>

<!-- generated on 2022-10-27 13:44:46 by Eclipse SUMO polyconvert Version 1.14.1
<configuration xmlns:xsi="http://www.w3.org/2001/XMLSchema-instance" xsi:noNamespaceSchemaLocation="http://sumo.dlr.de/xsd/polyconvertConfiguration.xsd">

    <input>
        <net-file value="osm.net.xml"/>
        <osm-files value="osm_bbox.osm.xml.gz"/>
        <osm.keep-full-type value="true"/>
        <type-file value="/usr/share/sumo/tools/../data/typemap/osmPolyconvert.typ.xml"/>
    </input>

    <output>
        <output-file value="osm.poly.xml"/>
    </output>

    <report>
        <verbose value="true"/>
    </report>

</configuration>
-->

<additional xmlns:xsi="http://www.w3.org/2001/XMLSchema-instance" xsi:noNamespaceSchemaLocation="http://sumo.dlr.de/xsd/additional_file.xsd">
    <location netOffset="-276828.53,-4686573.49" convBoundary="-1258.21,-548.43,1729.45,2023.41" origBoundary="-83.723400,42.294556,-83.686536,42.317281" projParameter="+proj=utm +zone=17 +ellps=WGS84 +datum=WGS84 +units=m +no_defs"/>

    <poly id="1106422774" type="tourism.picnic_site" color="207,245,201" fill="1" layer="-2.00" shape="1373.340499,360.331931 1372.920705,354.364934 1373.447568,354.326036 1379.145205,353.934607 1379.564643,359.890499 1373.340499,360.331931"/>
    <poly id="1106473384" type="amenity.bank" color="237,199,199" fill="1" layer="-1.00" shape="1417.983788,602.788378 1434.831879,608.502564 1431.478297,618.824006 1429.658768,624.428314 1425.790861,623.183410 1425.264082,624.789624 1416.094329,621.833851 1416.763321,619.767392 1412.903652,618.522234 1417.983788,602.788378"/>
    <poly id="1106473384#1" type="building.yes" color="255,230,230" fill="1" layer="-1.00" shape="1417.983788,602.788378 1434.831879,608.502564 1431.478297,618.824006 1429.658768,624.428314 1425.790861,623.183410 1425.264082,624.789624 1416.094329,621.833851 1416.763321,619.767392 1412.903652,618.522234 1417.983788,602.788378"/>
    <poly id="1106473385" type="amenity.bank" color="237,199,199" fill="1" layer="-1.00" shape="1434.831879,608.502564 1442.780448,611.196857 1439.496828,621.382692 1431.478297,618.824006 1434.831879,608.502564"/>
    <poly id="1106473385#1" type="building.roof" color="255,230,230" fill="1" layer="-1.00" shape="1434.831879,608.502564 1442.780448,611.196857 1439.496828,621.382692 1431.478297,618.824006 1434.831879,608.502564"/>
    <poly id="174701045" type="natural.water" color="181,209,209" fill="1" layer="-4.00" shape="542.522405,101.541007 542.557162,99.516820 543.119706,64.472945 536.720004,30.283715 528.113203,10.270565 526.727306,-5.569969 532.858491,-14.668419 542.095655,-2.611986 552.750230,33.298513 553.458582,76.405482 542.522405,101.541007"/>
    <poly id="174701060" type="natural.water" color="181,209,209" fill="1" layer="-4.00" shape="517.653116,321.968632 511.338198,311.497946 525.324123,305.762690 533.426796,309.907284 530.090616,323.341117 517.653116,321.968632"/>
    <poly id="174701063" type="natural.water" color="181,209,209" fill="1" layer="-4.00" shape="579.863710,1130.772465 542.767777,1106.061652 506.087275,1072.878647 485.563380,1069.106475 467.507791,1077.583445 457.468657,1074.789944 450.340231,1066.746213 446.940637,1056.349724 457.429625,1041.098979 461.469198,1033.723094 471.797501,1024.580092 484.208646,1024.641576 496.522766,1032.298300 505.849674,1037.604437 514.525943,1032.037704 522.754307,1012.368062 532.783076,993.530524 544.536906,966.657033 553.770567,957.593393 569.549845,961.605367 591.478380,979.205790 619.260456,993.808131 643.798878,1005.000930 656.476159,1016.825955 663.326547,1029.113844 664.860182,1041.559378 670.493691,1054.241605 678.970990,1061.120029 696.085387,1083.553310 698.383015,1107.334995 688.964701,1117.338041 690.294230,1131.412969 701.606915,1146.004750 697.403582,1160.444244 687.636914,1159.209115 679.475489,1152.920918 672.530524,1129.331204 658.098545,1120.963311 643.397725,1124.920344 635.697930,1140.193409 622.817073,1145.860133 605.599298,1133.167795 579.863710,1130.772465"/>
    <poly id="174701065" type="natural.water" color="181,209,209" fill="1" layer="-4.00" shape="539.216769,276.298094 539.320970,271.003643 540.901838,189.807785 552.029379,177.982947 549.331497,281.179164 539.216769,276.298094"/>
    <poly id="174701069" type="natural.water" color="181,209,209" fill="1" layer="-4.00" shape="502.293454,387.339611 502.664001,379.780180 531.074793,382.401715 546.460777,385.681450 546.251340,394.158376 539.270204,397.525823 521.678453,394.682971 502.293454,387.339611"/>
    <poly id="192429432" type="building.yes" color="255,230,230" fill="1" layer="-1.00" shape="854.008951,391.074096 876.613987,390.946527 876.690333,403.504973 873.753646,403.531384 873.772136,405.676149 877.014524,405.662278 877.098508,420.543686 850.360571,420.702262 850.290161,408.332594 863.357925,408.251729 863.337571,403.706007 854.080968,403.754955 854.008951,391.074096"/>
    <poly id="192429433" type="building.retail" color="255,230,230" fill="1" layer="-1.00" shape="1069.803007,618.255952 1099.327103,617.776476 1099.737621,643.240866 1062.428469,643.844701 1062.024347,618.846964 1065.182795,618.791369 1065.094758,613.147334 1056.674503,613.280698 1056.072076,575.772859 1081.489593,575.367840 1082.099822,613.386751 1069.729445,613.589649 1069.803007,618.255952"/>
    <poly id="192429434" type="building.yes" color="255,230,230" fill="1" layer="-1.00" shape="975.873028,678.711995 966.784822,678.855525 967.067245,697.398856 985.548946,697.113245 985.506199,694.202259 1001.150961,693.962133 1001.097813,690.462340 999.398731,690.482835 999.211730,678.072409 1003.310542,678.009216 1002.886686,650.833394 993.765122,650.966829 993.893497,659.444118 984.731082,659.589976 984.881897,669.556073 975.735980,669.701420 975.873028,678.711995"/>
    <poly id="192429435" type="building.yes" color="255,230,230" fill="1" layer="-1.00" shape="360.727927,373.773498 415.151047,373.900636 415.042061,420.857498 360.619657,420.741480 360.727927,373.773498"/>
    <poly id="192429436" type="amenity.parking" color="184,184,179" fill="1" layer="-1.00" shape="98.578628,198.029600 112.384664,197.534823 200.595267,194.384722 203.149584,265.889778 101.133633,269.523554 98.578628,198.029600"/>
    <poly id="192429436#1" type="building.parking" color="255,230,230" fill="1" layer="-1.00" shape="98.578628,198.029600 112.384664,197.534823 200.595267,194.384722 203.149584,265.889778 101.133633,269.523554 98.578628,198.029600"/>
    <poly id="192429437" type="building.yes" color="255,230,230" fill="1" layer="-1.00" shape="864.384571,685.769971 907.878867,685.069023 909.538106,788.938170 866.044454,789.639132 864.384571,685.769971"/>
    <poly id="192429452" type="amenity.parking" color="184,184,179" fill="1" layer="-1.00" shape="877.139670,389.829395 852.955954,389.873628 853.254348,397.723047 850.198653,402.844283 850.290161,408.332594 850.360571,420.702262 846.298135,418.274438 840.915813,415.077014 829.886827,412.836759 830.232336,407.078926 828.415185,405.980505 824.575621,406.157841 823.099272,361.163370 823.049586,356.474072 829.770088,356.071990 829.512667,343.530398 834.435735,342.651760 834.368290,338.963448 848.580445,339.057477 869.617875,339.190803 869.797600,343.297955 877.098310,342.977567 876.870525,364.682850 877.139670,389.829395"/>
    <poly id="192429456" type="amenity.parking" color="184,184,179" fill="1" layer="-1.00" shape="637.126499,206.217153 682.703646,204.226176 681.391850,174.066095 670.440809,166.754770 658.846435,163.354416 655.408798,151.758533 634.880323,153.121409 637.126499,206.217153"/>
    <poly id="242388861" type="amenity.parking" color="184,184,179" fill="1" layer="-1.00" shape="44.386305,415.246684 98.801745,415.393828 99.063855,395.621424 128.580981,395.660602 128.766127,387.473415 162.091414,387.902928 162.148663,371.282852 177.753968,371.331211 177.768886,409.680551 132.145278,455.828712 44.845836,456.394252 44.386305,415.246684"/>
    <poly id="242388862" type="building.retail" color="255,230,230" fill="1" layer="-1.00" shape="134.038898,530.400594 51.738761,531.940903 50.629698,468.048630 133.173169,466.611779 133.310102,474.288507 134.102150,474.285543 164.814635,445.763448 161.645514,442.373856 197.495597,409.075426 225.086186,438.577783 221.766535,446.542269 215.997541,451.694514 218.963741,454.412512 216.067875,457.539233 212.743324,455.488469 193.926483,472.505022 195.147983,473.811198 178.894272,488.912164 178.808662,488.814844 134.038898,530.400594"/>
    <poly id="242389278" type="amenity.parking" color="184,184,179" fill="1" layer="-1.00" shape="440.243503,273.094133 475.598571,271.948937 474.341701,232.894403 480.977643,232.683650 481.784818,257.579754 488.626468,257.351358 488.908024,265.957200 521.419157,264.902556 518.764328,182.073755 479.863773,183.320185 479.127980,160.411554 468.296032,160.755567 468.772991,175.513385 447.101250,176.212828 446.792975,166.507364 436.826601,166.823933 440.243503,273.094133"/>
    <poly id="242389279" type="amenity.parking" color="184,184,179" fill="1" layer="-1.00" shape="300.240183,136.371184 340.526302,135.090862 339.013856,87.496330 298.727817,88.787755 300.240183,136.371184"/>
    <poly id="285298400" type="building.retail" color="255,230,230" fill="1" layer="-1.00" shape="1318.511997,403.961837 1318.588939,419.432543 1318.628437,426.678771 1318.709115,443.049737 1318.754968,451.018288 1318.814722,463.077001 1322.708627,463.053834 1322.743747,470.422473 1328.790850,470.386759 1328.911415,495.059938 1347.539701,494.959646 1347.564368,500.694598 1360.302180,500.625084 1360.273821,494.512313 1371.914613,494.455295 1371.793848,469.771017 1365.647479,469.798719 1365.549053,450.515992 1372.339104,450.490160 1372.189383,421.238224 1376.685761,421.218262 1381.124085,421.189023 1381.061260,408.507933 1372.093569,408.558177 1372.071248,403.679066 1318.511997,403.961837"/>
    <poly id="292323780" type="building.yes" color="255,230,230" fill="1" layer="-1.00" shape="891.960526,164.709080 905.005188,170.653822 893.029507,196.088458 879.848612,190.270333 891.960526,164.709080"/>
    <poly id="292333839" type="amenity.parking" color="184,184,179" fill="1" layer="-1.00" shape="17.789037,259.603430 94.563545,257.538437 92.806442,191.932753 92.773352,190.633246 76.234472,191.081617 15.998111,192.698231 16.055600,194.763959 17.789037,259.603430"/>
    <poly id="298913028" type="amenity.bank" color="237,199,199" fill="1" layer="-1.00" shape="1264.667467,561.564419 1271.073048,542.876156 1281.390892,546.384552 1294.319708,550.788522 1293.949538,551.867350 1291.094091,560.194499 1287.914076,569.476761 1264.667467,561.564419"/>
    <poly id="298913028#1" type="building.commercial" color="255,230,230" fill="1" layer="-1.00" shape="1264.667467,561.564419 1271.073048,542.876156 1281.390892,546.384552 1294.319708,550.788522 1293.949538,551.867350 1291.094091,560.194499 1287.914076,569.476761 1264.667467,561.564419"/>
    <poly id="298913029" type="building.roof" color="255,230,230" fill="1" layer="-1.00" shape="1333.346809,569.784266 1357.528455,578.045182 1360.740121,568.717493 1336.558097,560.445460 1333.346809,569.784266"/>
    <poly id="298913030" type="building.yes" color="255,230,230" fill="1" layer="-1.00" shape="1325.234521,583.302057 1333.007291,560.357725 1323.549769,557.177739 1315.785619,580.132927 1325.234521,583.302057"/>
    <poly id="298913031" type="building.yes" color="255,230,230" fill="1" layer="-1.00" shape="1334.245064,694.919362 1375.921177,708.740446 1382.689482,688.473494 1389.533585,667.992954 1347.857622,654.182886 1334.245064,694.919362"/>
    <poly id="298913031#1" type="shop.supermarket" color="237,199,255" fill="1" layer="-1.00" shape="1334.245064,694.919362 1375.921177,708.740446 1382.689482,688.473494 1389.533585,667.992954 1347.857622,654.182886 1334.245064,694.919362"/>
    <poly id="299039779" type="building.yes" color="255,230,230" fill="1" layer="-1.00" shape="1412.547445,325.766790 1450.035510,325.292664 1448.941377,237.979736 1411.271491,238.459586 1411.478370,254.915467 1432.602201,254.647594 1432.856181,275.203694 1426.051234,275.285505 1425.958723,268.185468 1412.225515,268.364125 1412.509802,290.920105 1426.103181,290.756983 1426.018377,283.378809 1432.996426,283.291523 1433.314437,309.003305 1412.339149,309.266489 1412.547445,325.766790"/>
    <poly id="299039779#1" type="tourism.hotel" color="207,245,201" fill="1" layer="-2.00" shape="1412.547445,325.766790 1450.035510,325.292664 1448.941377,237.979736 1411.271491,238.459586 1411.478370,254.915467 1432.602201,254.647594 1432.856181,275.203694 1426.051234,275.285505 1425.958723,268.185468 1412.225515,268.364125 1412.509802,290.920105 1426.103181,290.756983 1426.018377,283.378809 1432.996426,283.291523 1433.314437,309.003305 1412.339149,309.266489 1412.547445,325.766790"/>
    <poly id="299039780" type="building.yes" color="255,230,230" fill="1" layer="-1.00" shape="1294.634069,96.043818 1300.463650,95.903827 1301.189178,125.093083 1338.572916,124.154876 1337.851244,95.343441 1343.532441,95.208179 1343.121619,78.569778 1337.292376,78.720838 1336.797208,58.894883 1299.635698,59.826044 1300.129215,79.596476 1294.225780,79.749919 1294.634069,96.043818"/>
    <poly id="299044528" type="building.yes" color="255,230,230" fill="1" layer="-1.00" shape="299.671393,392.365559 323.872902,392.096540 323.998534,404.097688 299.796714,404.355604 299.671393,392.365559"/>
    <poly id="299044529" type="building.yes" color="255,230,230" fill="1" layer="-1.00" shape="547.566520,421.806193 505.018306,422.734877 504.479539,397.974752 511.340006,397.823582 511.375005,399.445385 517.526554,399.316733 517.557673,400.816385 523.445086,400.685010 523.482198,402.373441 529.559556,402.247156 529.598563,403.735441 535.544027,403.613349 535.572674,405.035268 541.452192,404.915274 541.482953,406.403821 547.230226,406.276916 547.566520,421.806193"/>
    <poly id="299044530" type="building.yes" color="255,230,230" fill="1" layer="-1.00" shape="861.690227,545.629373 881.783957,545.425793 881.880104,554.704449 883.513276,554.686017 883.600329,564.198394 881.793704,564.211209 881.884221,573.312191 880.292268,573.329317 880.389477,582.641287 873.320669,582.720904 873.350845,585.754565 867.321006,585.812362 867.290123,582.756492 862.060555,582.811151 861.690227,545.629373"/>
    <poly id="299044531" type="amenity.restaurant" color="237,199,199" fill="1" layer="-1.00" shape="959.501019,558.902284 959.309951,531.785776 982.993997,531.613204 983.141705,552.417305 976.121627,552.473041 976.173145,558.785184 959.501019,558.902284"/>
    <poly id="299044531#1" type="building.yes" color="255,230,230" fill="1" layer="-1.00" shape="959.501019,558.902284 959.309951,531.785776 982.993997,531.613204 983.141705,552.417305 976.121627,552.473041 976.173145,558.785184 959.501019,558.902284"/>
    <poly id="299044532" type="building.college" color="255,230,230" fill="1" layer="-1.00" shape="1048.858807,816.358283 1055.101889,798.297392 1111.541453,817.662820 1113.521653,811.931044 1131.523229,818.119278 1129.512508,823.929826 1192.950546,845.708666 1189.435576,855.868633 1186.199104,854.759493 1183.288353,863.155154 1176.748417,860.905655 1174.654039,866.941154 1168.372789,864.783513 1166.339437,870.661462 1159.624647,868.361937 1157.175237,875.431338 1143.661821,870.790505 1141.114418,878.152027 1133.690561,875.608205 1131.491380,881.980513 1124.818152,879.690821 1122.535346,886.288097 1100.288839,878.667034 1098.452267,883.982984 1090.544346,881.265572 1093.152361,873.735371 1088.556149,872.158022 1102.009191,833.215630 1093.809557,830.407409 1093.386310,831.632438 1048.858807,816.358283"/>
    <poly id="299044533" type="amenity.pharmacy" color="237,199,199" fill="1" layer="-1.00" shape="1252.097568,699.620022 1252.059810,677.834297 1285.028806,677.757867 1285.020401,675.145927 1298.559569,675.117611 1298.593481,690.789774 1296.060472,690.792126 1296.081170,699.528467 1259.572595,699.605730 1255.141981,699.612582 1252.097568,699.620022"/>
    <poly id="299044533#1" type="building.yes" color="255,230,230" fill="1" layer="-1.00" shape="1252.097568,699.620022 1252.059810,677.834297 1285.028806,677.757867 1285.020401,675.145927 1298.559569,675.117611 1298.593481,690.789774 1296.060472,690.792126 1296.081170,699.528467 1259.572595,699.605730 1255.141981,699.612582 1252.097568,699.620022"/>
    <poly id="303238150" type="building.school" color="255,230,230" fill="1" layer="-1.00" shape="521.290558,708.040078 540.524282,726.237309 514.900789,753.139956 523.254065,761.033707 533.929427,749.812263 554.963145,749.344424 555.382787,768.016849 534.522575,768.490297 510.980355,792.592376 519.774428,801.116841 493.387561,828.132765 476.565923,811.837673 502.304885,785.464753 491.970509,775.466358 461.661330,806.542002 464.163712,808.952463 455.790619,817.577587 437.959755,800.425371 444.838377,793.326115 442.064101,790.668634 474.326572,757.185411 471.808044,754.786575 482.022893,744.135469 491.806065,733.920493 494.341430,736.329917 521.290558,708.040078"/>
    <poly id="303238151" type="amenity.school" color="237,199,199" fill="1" layer="-2.00" shape="441.601052,673.244221 477.574495,685.396049 622.699634,680.043063 627.419622,907.490199 425.267449,914.099344 425.523567,813.092407 432.448453,756.548286 401.593119,743.945064 441.601052,673.244221"/>
    <poly id="303238156" type="amenity.parking" color="184,184,179" fill="1" layer="-1.00" shape="447.533840,696.365713 439.041423,691.889033 416.253529,734.797747 446.656311,750.816867 459.704341,726.236469 472.379387,702.379366 465.850745,698.940747 463.912212,702.592750 448.530013,694.477717 447.533840,696.365713"/>
    <poly id="303358563" type="building.retail" color="255,230,230" fill="1" layer="-1.00" shape="56.266801,402.485508 56.220024,398.941024 56.179846,395.863198 55.936536,376.807169 70.841286,376.621917 70.868031,379.277766 79.305824,379.164914 79.465555,391.965347 70.714181,392.077062 70.739155,393.899275 61.798188,394.017034 61.817980,395.417008 61.859923,398.550357 61.908701,402.417139 56.266801,402.485508"/>
    <poly id="303571602" type="natural.wood" color="140,196,107" fill="1" layer="-4.00" shape="659.592003,31.341409 670.857960,131.270925 647.936427,141.735747 627.543195,148.140939 629.654610,214.668888 684.877283,212.916480 689.402682,234.871159 714.998497,237.182619 752.658581,261.876684 757.132084,289.746654 758.952773,317.489573 744.157595,330.753205 736.770916,354.375227 719.163401,378.343756 639.127127,362.075474 554.859340,328.457200 554.117663,22.306001 546.311836,-2.890345 512.206143,-26.807033 510.410234,-49.581950 515.128377,-86.291759 533.935147,-88.622933 531.001850,-66.909499 541.862359,-37.252650 577.130303,-24.032800 618.217166,-22.468996 630.081355,-6.416321 646.092546,0.678806 656.330012,14.359891 659.592003,31.341409"/>
    <poly id="322265687" type="building.commercial" color="255,230,230" fill="1" layer="-1.00" shape="155.652459,361.874226 106.161520,361.425439 105.895848,371.749442 105.938476,379.573677 105.934118,385.142879 110.837670,385.209198 110.783260,391.280208 124.353157,391.415431 124.417235,385.388578 155.184303,385.810512 155.652459,361.874226"/>
    <poly id="33687565" type="amenity.parking" color="184,184,179" fill="1" layer="-1.00" shape="1256.595396,508.308583 1256.470557,503.321553 1249.305938,503.503861 1247.359517,426.888878 1255.323799,426.681264 1254.960380,412.331192 1303.389837,411.087563 1303.591460,419.284617 1305.743273,419.227642 1307.753897,498.152643 1305.733997,498.205444 1305.956006,507.046568 1256.595396,508.308583"/>
    <poly id="33687586" type="amenity.parking" color="184,184,179" fill="1" layer="-1.00" shape="1253.174625,393.190778 1252.639840,358.826631 1271.187985,358.528615 1271.723031,392.903865 1253.174625,393.190778"/>
    <poly id="33687621" type="amenity.parking" color="184,184,179" fill="1" layer="-1.00" shape="1333.369198,386.895923 1332.845343,356.255231 1367.771197,355.650521 1368.219629,381.825057 1353.936099,382.076831 1354.092278,391.186811 1345.391507,391.328685 1345.310952,386.695962 1333.369198,386.895923"/>
    <poly id="33687632" type="amenity.parking" color="184,184,179" fill="1" layer="-1.00" shape="1409.392339,373.675423 1409.220821,351.816165 1461.463783,351.386766 1461.643733,373.256863 1409.392339,373.675423"/>
    <poly id="33687684" type="amenity.parking" color="184,184,179" fill="1" layer="-1.00" shape="1593.848345,435.927753 1592.018068,439.109115 1585.018101,451.290864 1555.615890,480.443001 1557.878276,485.451383 1529.591073,514.890761 1481.852453,563.008374 1475.050969,579.630281 1466.536591,576.787106 1446.930537,570.226337 1438.149200,567.291595 1445.462909,545.995949 1454.415221,532.940845 1462.962952,524.833942 1476.467218,511.168071 1505.171270,480.826027 1511.154855,467.297965 1568.948041,409.892434 1593.848345,435.927753"/>
    <poly id="33687714" type="amenity.parking" color="184,184,179" fill="1" layer="-1.00" shape="1376.198989,522.687177 1371.071142,537.955710 1369.636834,537.478644 1366.598052,546.534080 1320.024361,531.033854 1323.258789,521.383069 1317.246344,519.383510 1322.170154,504.710522 1376.198989,522.687177"/>
    <poly id="33687729" type="amenity.parking" color="184,184,179" fill="1" layer="-1.00" shape="1255.900875,118.489493 1254.616004,55.726097 1260.319195,34.381202 1291.990419,50.308312 1287.437646,63.157682 1289.841980,116.715140 1255.900875,118.489493"/>
    <poly id="33687846" type="amenity.parking" color="184,184,179" fill="1" layer="-1.00" shape="1362.585215,132.754738 1351.730657,125.339305 1350.664855,47.040316 1319.537076,48.025050 1307.906643,38.522226 1301.841700,26.008808 1302.193683,14.704064 1396.317140,12.438075 1397.279785,132.368768 1362.585215,132.754738"/>
    <poly id="33687945" type="amenity.parking" color="184,184,179" fill="1" layer="-1.00" shape="1423.780877,49.540933 1433.197623,14.095182 1485.561098,12.439596 1487.949900,110.449336 1430.004866,111.192112 1429.779381,65.180065 1423.780877,49.540933"/>
    <poly id="346916123" type="amenity.driver_training" color="237,199,199" fill="1" layer="-1.00" shape="779.079065,321.153017 790.947824,333.215185 804.456076,341.034711 880.124947,334.855999 902.839672,306.946650 900.276367,277.104155 886.255796,248.958759 860.492943,194.785613 842.091456,156.263625 875.235641,153.300896 883.934640,140.597658 876.906846,120.900923 840.702947,59.377798 843.586650,-25.871825 829.482598,-47.778536 760.473891,-58.095474 691.654968,-62.682006 669.136076,-84.499314 612.576153,-105.047324 596.745627,-112.681686 574.488873,-113.487000 536.835116,-108.267760 537.254054,-89.873232 533.163987,-69.245775 536.378719,-59.221308 542.710506,-42.248356 552.734037,-35.574707 570.039131,-29.576824 581.881567,-28.252011 619.247108,-24.858239 632.446914,-9.103611 656.975970,-8.192387 661.841089,28.624476 668.210133,125.841492 659.112859,132.744083 658.167869,147.691513 631.098489,149.662133 633.894480,209.421043 694.961011,208.239131 759.007364,248.191810 770.609898,256.538598 774.379389,264.555819 776.566174,279.648437 779.079065,321.153017"/>
    <poly id="346946425" type="natural.wood" color="140,196,107" fill="1" layer="-4.00" shape="883.745589,-44.463349 910.953805,-52.751112 941.608097,-50.988138 975.473884,-34.854030 997.076906,-9.349704 1006.961642,17.704197 1006.385013,48.991180 998.579165,75.049355 980.761051,94.766428 955.750395,110.409669 933.682835,119.712651 908.548178,118.941965 897.444257,115.392285 873.726582,97.369540 851.953858,54.285754 866.187592,-16.539655 883.745589,-44.463349"/>
    <poly id="346946432" type="landuse.grass" color="194,194,130" fill="1" layer="-3.00" shape="889.116880,449.308318 885.714939,334.712129 931.172442,281.593808 981.810300,242.462089 991.907610,224.668108 1016.282811,209.033987 1066.061723,97.944343 1207.824979,93.688988 1211.564951,511.078996 1202.698227,552.888245 889.116880,449.308318"/>
    <poly id="366352525" type="amenity.bank" color="237,199,199" fill="1" layer="-1.00" shape="1033.009939,594.266556 1042.205409,594.119721 1041.297452,570.149482 1044.215468,570.057033 1043.639897,551.889827 1023.347125,551.799125 1023.639723,570.408816 1032.403272,570.431276 1033.009939,594.266556"/>
    <poly id="366352525#1" type="building.yes" color="255,230,230" fill="1" layer="-1.00" shape="1033.009939,594.266556 1042.205409,594.119721 1041.297452,570.149482 1044.215468,570.057033 1043.639897,551.889827 1023.347125,551.799125 1023.639723,570.408816 1032.403272,570.431276 1033.009939,594.266556"/>
    <poly id="394889884" type="leisure.playground" color="207,245,201" fill="1" layer="-2.00" shape="200.907709,806.693462 194.228599,809.162418 192.876446,807.638082 190.606756,806.320785 188.376040,785.215954 188.022445,781.881316 206.993558,779.343781 209.539502,780.785689 210.780120,784.770187 208.058680,788.447170 200.814935,788.988794 198.596441,790.837895 200.907709,806.693462"/>
    <poly id="394889906" type="leisure.park" color="207,245,201" fill="1" layer="-2.00" shape="124.498866,864.925856 222.131707,865.399574 221.995858,849.452588 253.945192,827.438697 252.892056,824.159649 221.730364,845.514889 220.367901,770.759381 123.393168,770.264657 124.498866,864.925856"/>
    <poly id="394889912" type="leisure.nature_reserve" color="207,245,201" fill="1" layer="-2.00" shape="425.267449,914.099344 627.419622,907.490199 629.222509,989.234505 703.673275,1052.788392 720.060858,1156.579418 584.324924,1157.720154 585.668197,1203.141366 579.807950,1203.327452 578.051069,1158.653020 460.995144,1159.558704 450.610736,1154.464087 437.785722,1150.458578 428.361366,1149.613100 425.267449,914.099344"/>
    <poly id="443288242" type="building.house" color="255,230,230" fill="1" layer="-1.00" shape="396.915988,696.984622 389.117828,692.285854 395.924017,681.087101 403.713589,685.775034 396.915988,696.984622"/>
    <poly id="443288280" type="building.yes" color="255,230,230" fill="1" layer="-1.00" shape="389.690959,682.018809 383.471954,678.459264 386.412488,673.363681 392.631848,676.934333 389.690959,682.018809"/>
    <poly id="447718700" type="landuse.grass" color="194,194,130" fill="1" layer="-3.00" shape="691.363032,128.908477 709.157266,128.232770 708.199933,94.415459 690.935595,94.629717 691.049857,87.567543 687.960845,87.999025 685.980994,91.919033 686.176537,98.082112 689.363622,118.167331 690.663598,127.930244 691.363032,128.908477"/>
    <poly id="447718872" type="landuse.grass" color="194,194,130" fill="1" layer="-3.00" shape="739.177137,125.624189 768.130779,124.261180 768.207912,126.693097 771.174455,126.043218 772.663516,124.339734 771.751923,91.954925 771.449047,89.430125 768.656108,88.529399 768.739931,91.172305 737.892531,92.150741 739.177137,125.624189"/>
    <poly id="447719262" type="landuse.grass" color="194,194,130" fill="1" layer="-3.00" shape="739.039056,166.534790 773.364967,181.319396 775.244474,181.259785 774.115852,159.464116 773.347049,156.298260 771.422101,154.925372 769.765161,154.977925 769.643669,158.172018 738.592801,159.490399 739.039056,166.534790"/>
    <poly id="447719263" type="landuse.grass" color="194,194,130" fill="1" layer="-3.00" shape="703.100970,195.353292 705.911493,196.809224 709.566507,196.793307 713.384062,195.138209 716.915634,191.491337 718.816134,188.452004 718.853545,186.249884 712.555550,186.449687 711.289195,160.578876 700.672789,160.693376 700.344230,153.978726 695.655523,156.006059 693.304025,158.615075 692.314764,165.927329 692.893542,177.147066 695.138824,185.234844 699.219354,191.608137 703.100970,195.353292"/>
    <poly id="447719264" type="landuse.grass" color="194,194,130" fill="1" layer="-3.00" shape="735.291585,204.736472 734.941693,207.493179 733.683757,209.978565 731.673487,211.898679 729.135359,213.046315 726.354016,213.290170 723.658840,212.608680 721.340466,211.059318 719.730250,208.942815 718.875046,206.435538 718.865039,203.779174 719.701147,201.262704 721.300795,199.144413 723.488969,197.629938 726.048381,196.892911 728.709108,197.008588 731.198414,197.963392 733.248631,199.643537 734.710322,202.020418 735.291585,204.736472"/>
    <poly id="447719266" type="landuse.grass" color="194,194,130" fill="1" layer="-3.00" shape="745.231435,215.292437 751.423340,222.154573 755.176261,225.225771 756.287921,225.412826 757.594327,224.715555 758.330814,223.480569 757.206886,195.070836 737.784803,186.305160 738.159004,184.314673 736.505593,184.478280 735.550054,185.831375 735.509115,187.922448 736.242213,190.222399 739.223796,193.429217 741.986678,196.765248 743.227620,201.027707 743.437210,207.634972 743.583747,212.254505 745.231435,215.292437"/>
    <poly id="447719267" type="landuse.grass" color="194,194,130" fill="1" layer="-3.00" shape="765.335971,231.528545 768.236019,232.425869 777.629966,232.016761 780.238905,230.500074 782.332968,226.798787 780.876946,205.346975 778.643295,201.004837 773.678236,197.960956 769.984482,196.755328 768.637473,199.554775 762.584201,197.323523 764.403770,230.235330 765.335971,231.528545"/>
    <poly id="447719407" type="landuse.grass" color="194,194,130" fill="1" layer="-3.00" shape="792.474933,228.900382 794.632995,230.599355 796.761682,231.632312 800.865692,231.724476 804.032434,230.623626 805.419387,228.823343 805.307401,225.292065 803.507501,220.836124 800.338151,215.089714 796.598981,212.451573 793.722029,212.542813 791.877396,213.701779 791.624434,216.133050 791.889975,224.505954 792.474933,228.900382"/>
    <poly id="447719408" type="landuse.grass" color="194,194,130" fill="1" layer="-3.00" shape="793.806011,257.081226 800.857233,245.508356 801.325372,242.836829 800.515630,241.762043 798.399833,241.395626 796.194129,241.576735 793.935704,243.738133 792.953297,247.626478 793.059201,254.348188 793.806011,257.081226"/>
    <poly id="447719783" type="landuse.grass" color="194,194,130" fill="1" layer="-3.00" shape="832.678794,257.838235 830.683683,174.099391 845.370661,204.513426 873.893565,252.563136 859.225704,250.593805 841.584379,252.698244 836.769736,254.396005 832.678794,257.838235"/>