<?xml version="1.0" encoding="UTF-8"?>

<!-- generated on 2022-12-01 11:11:37 by Eclipse SUMO netedit Version 1.15.0
<configuration xmlns:xsi="http://www.w3.org/2001/XMLSchema-instance" xsi:noNamespaceSchemaLocation="http://sumo.dlr.de/xsd/netconvertConfiguration.xsd">

    <input>
        <sumo-net-file value="osm.net.xml"/>
    </input>

    <output>
        <output-file value="osm.net.xml"/>
        <output.street-names value="true"/>
    </output>

    <processing>
        <geometry.min-radius.fix.railways value="false"/>
        <geometry.max-grade.fix value="false"/>
        <offset.disable-normalization value="true"/>
        <lefthand value="0"/>
    </processing>

    <junctions>
        <no-turnarounds value="true"/>
        <junctions.corner-detail value="5"/>
        <junctions.limit-turn-speed value="5.50"/>
        <rectangular-lane-cut value="0"/>
    </junctions>

    <pedestrian>
        <walkingareas value="0"/>
    </pedestrian>

</configuration>
-->

<net version="1.9" junctionCornerDetail="5" limitTurnSpeed="5.50" xmlns:xsi="http://www.w3.org/2001/XMLSchema-instance" xsi:noNamespaceSchemaLocation="http://sumo.dlr.de/xsd/net_file.xsd">

    <location netOffset="-276828.53,-4686573.49" convBoundary="-39.95,101.70,1477.21,1222.66" origBoundary="-83.708888,42.295387,-83.688386,42.310660" projParameter="+proj=utm +zone=17 +ellps=WGS84 +datum=WGS84 +units=m +no_defs"/>

    <type id="highway.bridleway" priority="1" numLanes="1" speed="2.78" allow="pedestrian" oneway="1" width="2.00"/>
    <type id="highway.bus_guideway" priority="1" numLanes="1" speed="27.78" allow="bus" oneway="1"/>
    <type id="highway.cycleway" priority="1" numLanes="1" speed="5.56" allow="bicycle" oneway="0" width="1.00"/>
    <type id="highway.footway" priority="1" numLanes="1" speed="2.78" allow="pedestrian" oneway="1" width="2.00"/>
    <type id="highway.ford" priority="1" numLanes="1" speed="2.78" allow="army" oneway="0"/>
    <type id="highway.living_street" priority="2" numLanes="1" speed="2.78" disallow="tram rail_urban rail rail_electric rail_fast ship" oneway="0"/>
    <type id="highway.motorway" priority="14" numLanes="2" speed="39.44" allow="private emergency authority army vip passenger hov taxi bus coach delivery truck trailer motorcycle evehicle custom1 custom2" oneway="1"/>
    <type id="highway.motorway_link" priority="9" numLanes="1" speed="22.22" allow="private emergency authority army vip passenger hov taxi bus coach delivery truck trailer motorcycle evehicle custom1 custom2" oneway="1"/>
    <type id="highway.path" priority="1" numLanes="1" speed="5.56" allow="pedestrian bicycle" oneway="0" width="2.00"/>
    <type id="highway.pedestrian" priority="1" numLanes="1" speed="2.78" allow="pedestrian" oneway="1" width="2.00"/>
    <type id="highway.primary" priority="12" numLanes="2" speed="27.78" disallow="tram rail_urban rail rail_electric rail_fast ship" oneway="0"/>
    <type id="highway.primary_link" priority="7" numLanes="1" speed="22.22" disallow="tram rail_urban rail rail_electric rail_fast ship" oneway="0"/>
    <type id="highway.raceway" priority="15" numLanes="2" speed="83.33" allow="vip" oneway="0"/>
    <type id="highway.residential" priority="3" numLanes="1" speed="13.89" disallow="tram rail_urban rail rail_electric rail_fast ship" oneway="0"/>
    <type id="highway.secondary" priority="11" numLanes="1" speed="27.78" disallow="tram rail_urban rail rail_electric rail_fast ship" oneway="0"/>
    <type id="highway.secondary_link" priority="6" numLanes="1" speed="22.22" disallow="tram rail_urban rail rail_electric rail_fast ship" oneway="0"/>
    <type id="highway.service" priority="1" numLanes="1" speed="5.56" allow="pedestrian delivery bicycle" oneway="0"/>
    <type id="highway.stairs" priority="1" numLanes="1" speed="1.39" allow="pedestrian" oneway="1" width="2.00"/>
    <type id="highway.step" priority="1" numLanes="1" speed="1.39" allow="pedestrian" oneway="1" width="2.00"/>
    <type id="highway.steps" priority="1" numLanes="1" speed="1.39" allow="pedestrian" oneway="1" width="2.00"/>
    <type id="highway.tertiary" priority="10" numLanes="1" speed="22.22" disallow="tram rail_urban rail rail_electric rail_fast ship" oneway="0"/>
    <type id="highway.tertiary_link" priority="5" numLanes="1" speed="22.22" disallow="tram rail_urban rail rail_electric rail_fast ship" oneway="0"/>
    <type id="highway.track" priority="1" numLanes="1" speed="5.56" allow="pedestrian motorcycle moped bicycle" oneway="0"/>
    <type id="highway.trunk" priority="13" numLanes="2" speed="27.78" disallow="pedestrian bicycle tram rail_urban rail rail_electric rail_fast ship" oneway="0"/>
    <type id="highway.trunk_link" priority="8" numLanes="1" speed="22.22" disallow="pedestrian bicycle tram rail_urban rail rail_electric rail_fast ship" oneway="0"/>
    <type id="highway.unclassified" priority="4" numLanes="1" speed="13.89" disallow="tram rail_urban rail rail_electric rail_fast ship" oneway="0"/>
    <type id="highway.unsurfaced" priority="1" numLanes="1" speed="8.33" disallow="tram rail_urban rail rail_electric rail_fast ship" oneway="0"/>
    <type id="railway.highspeed" priority="21" numLanes="1" speed="69.44" allow="rail_fast" oneway="1"/>
    <type id="railway.light_rail" priority="19" numLanes="1" speed="27.78" allow="rail_urban" oneway="1"/>
    <type id="railway.preserved" priority="16" numLanes="1" speed="27.78" allow="rail" oneway="1"/>
    <type id="railway.rail" priority="20" numLanes="1" speed="44.44" allow="rail" oneway="1"/>
    <type id="railway.subway" priority="18" numLanes="1" speed="27.78" allow="rail_urban" oneway="1"/>
    <type id="railway.tram" priority="17" numLanes="1" speed="13.89" allow="tram" oneway="1"/>

    <edge id=":1556169033_0" function="internal">
        <lane id=":1556169033_0_0" index="0" disallow="tram rail_urban rail rail_electric rail_fast ship" speed="3.65" length="4.67" shape="57.12,624.41 55.70,624.13 55.02,623.55 55.08,622.65 55.88,621.45"/>
    </edge>
    <edge id=":4389578052_0" function="internal">
        <lane id=":4389578052_0_0" index="0" disallow="tram rail_urban rail rail_electric rail_fast ship" speed="15.65" length="8.27" shape="203.30,346.94 200.84,347.45 199.30,348.56 197.77,349.66 195.31,350.17"/>
        <lane id=":4389578052_0_1" index="1" disallow="tram rail_urban rail rail_electric rail_fast ship" speed="15.65" length="8.27" shape="203.30,346.94 195.30,346.97"/>
        <lane id=":4389578052_0_2" index="2" disallow="tram rail_urban rail rail_electric rail_fast ship" speed="15.65" length="8.27" shape="203.29,343.74 195.28,343.77"/>
    </edge>
    <edge id=":4389578052_3" function="internal">
        <lane id=":4389578052_3_0" index="0" disallow="tram rail_urban rail rail_electric rail_fast ship" speed="15.65" length="8.27" shape="195.26,337.37 197.72,336.87 199.26,335.76 200.79,334.65 203.25,334.14"/>
        <lane id=":4389578052_3_1" index="1" disallow="tram rail_urban rail rail_electric rail_fast ship" speed="15.65" length="8.27" shape="195.26,337.37 203.26,337.34"/>
        <lane id=":4389578052_3_2" index="2" disallow="tram rail_urban rail rail_electric rail_fast ship" speed="15.65" length="8.27" shape="195.27,340.57 203.27,340.54"/>
    </edge>
    <edge id=":4391425500_0" function="internal">
        <lane id=":4391425500_0_0" index="0" disallow="tram rail_urban rail rail_electric rail_fast ship" speed="20.12" length="8.20" shape="1268.38,609.60 1265.89,609.29 1264.08,609.84 1262.27,610.39 1259.78,610.07"/>
        <lane id=":4391425500_0_1" index="1" disallow="tram rail_urban rail rail_electric rail_fast ship" speed="20.12" length="8.20" shape="1268.38,609.60 1260.80,607.04"/>
        <lane id=":4391425500_0_2" index="2" disallow="tram rail_urban rail rail_electric rail_fast ship" speed="20.12" length="8.20" shape="1269.40,606.57 1261.83,604.01"/>
        <lane id=":4391425500_0_3" index="3" disallow="tram rail_urban rail rail_electric rail_fast ship" speed="20.12" length="8.20" shape="1270.43,603.54 1262.85,600.98"/>
    </edge>
    <edge id=":4391425500_4" function="internal">
        <lane id=":4391425500_4_0" index="0" disallow="tram rail_urban rail rail_electric rail_fast ship" speed="20.12" length="8.00" shape="1265.92,591.88 1273.50,594.44"/>
        <lane id=":4391425500_4_1" index="1" disallow="tram rail_urban rail rail_electric rail_fast ship" speed="20.12" length="8.00" shape="1264.89,594.91 1272.48,597.47"/>
        <lane id=":4391425500_4_2" index="2" disallow="tram rail_urban rail rail_electric rail_fast ship" speed="20.12" length="8.00" shape="1263.87,597.95 1271.45,600.50"/>
    </edge>
    <edge id=":62473998_0" function="internal">
        <lane id=":62473998_0_0" index="0" disallow="tram rail_urban rail rail_electric rail_fast ship" speed="20.12" length="8.27" shape="911.43,486.10 908.94,485.79 907.13,486.35 905.32,486.90 902.83,486.59"/>
        <lane id=":62473998_0_1" index="1" disallow="tram rail_urban rail rail_electric rail_fast ship" speed="20.12" length="8.27" shape="911.43,486.10 903.85,483.55"/>
        <lane id=":62473998_0_2" index="2" disallow="tram rail_urban rail rail_electric rail_fast ship" speed="20.12" length="8.27" shape="912.45,483.07 904.87,480.52"/>
    </edge>
    <edge id=":62473998_3" function="internal">
        <lane id=":62473998_3_0" index="0" disallow="tram rail_urban rail rail_electric rail_fast ship" speed="3.65" length="1.44" shape="912.45,483.07 911.57,481.93"/>
    </edge>
    <edge id=":62473998_7" function="internal">
        <lane id=":62473998_7_0" index="0" disallow="tram rail_urban rail rail_electric rail_fast ship" speed="3.65" length="3.23" shape="911.57,481.93 911.44,481.04 912.08,480.41 913.47,480.04"/>
    </edge>
    <edge id=":62473998_4" function="internal">
        <lane id=":62473998_4_0" index="0" disallow="tram rail_urban rail rail_electric rail_fast ship" speed="20.12" length="8.00" shape="906.91,474.46 914.49,477.01"/>
        <lane id=":62473998_4_1" index="1" disallow="tram rail_urban rail rail_electric rail_fast ship" speed="20.12" length="8.00" shape="905.89,477.49 913.47,480.04"/>
    </edge>
    <edge id=":62473998_6" function="internal">
        <lane id=":62473998_6_0" index="0" disallow="tram rail_urban rail rail_electric rail_fast ship" speed="3.65" length="1.44" shape="905.89,477.49 906.77,478.63"/>
    </edge>
    <edge id=":62473998_8" function="internal">
        <lane id=":62473998_8_0" index="0" disallow="tram rail_urban rail rail_electric rail_fast ship" speed="3.65" length="3.23" shape="906.77,478.63 906.90,479.51 906.26,480.15 904.87,480.52"/>
    </edge>
    <edge id=":62477148_0" function="internal">
        <lane id=":62477148_0_0" index="0" disallow="tram rail_urban rail rail_electric rail_fast ship" speed="3.65" length="4.67" shape="-39.95,344.43 -41.15,343.63 -41.55,342.83 -41.15,342.03 -39.95,341.23"/>
    </edge>
    <edge id=":62481221_0" function="internal">
        <lane id=":62481221_0_0" index="0" disallow="tram rail_urban rail rail_electric rail_fast ship" speed="3.65" length="4.67" shape="1477.72,670.06 1478.60,671.21 1478.73,672.09 1478.09,672.72 1476.70,673.10"/>
    </edge>
    <edge id=":62500823_0" function="internal">
        <lane id=":62500823_0_0" index="0" disallow="tram rail_urban rail rail_electric rail_fast ship" speed="15.65" length="7.84" shape="263.30,383.31 263.29,385.69 263.23,387.31 263.10,388.94 262.84,391.30"/>
        <lane id=":62500823_0_1" index="1" disallow="tram rail_urban rail rail_electric rail_fast ship" speed="15.65" length="7.84" shape="260.10,383.30 260.09,385.58 260.03,387.13 259.91,388.68 259.66,390.95"/>
    </edge>
    <edge id=":62500823_2" function="internal">
        <lane id=":62500823_2_0" index="0" disallow="tram rail_urban rail rail_electric rail_fast ship" speed="15.65" length="7.33" shape="253.30,390.23 253.04,388.10 252.05,386.76 250.99,385.42 250.50,383.28"/>
        <lane id=":62500823_2_1" index="1" disallow="tram rail_urban rail rail_electric rail_fast ship" speed="15.65" length="7.33" shape="253.30,390.23 253.52,388.18 253.64,386.77 253.69,385.35 253.70,383.28"/>
        <lane id=":62500823_2_2" index="2" disallow="tram rail_urban rail rail_electric rail_fast ship" speed="15.65" length="7.33" shape="256.48,390.59 256.71,388.43 256.84,386.95 256.89,385.46 256.90,383.29"/>
    </edge>
    <edge id=":62599231_0" function="internal">
        <lane id=":62599231_0_0" index="0" disallow="tram rail_urban rail rail_electric rail_fast ship" speed="20.12" length="0.19" shape="439.68,348.23 439.58,348.23"/>
        <lane id=":62599231_0_1" index="1" disallow="tram rail_urban rail rail_electric rail_fast ship" speed="20.12" length="0.19" shape="439.90,345.04 439.61,345.03"/>
    </edge>
    <edge id=":62599231_2" function="internal">
        <lane id=":62599231_2_0" index="0" disallow="tram rail_urban rail rail_electric rail_fast ship" speed="3.65" length="2.34" shape="439.90,345.04 438.75,344.16 438.41,343.34"/>
    </edge>
    <edge id=":62599231_6" function="internal">
        <lane id=":62599231_6_0" index="0" disallow="tram rail_urban rail rail_electric rail_fast ship" speed="3.65" length="2.34" shape="438.41,343.34 438.86,342.56 440.11,341.85"/>
    </edge>
    <edge id=":62599231_3" function="internal">
        <lane id=":62599231_3_0" index="0" disallow="tram rail_urban rail rail_electric rail_fast ship" speed="20.12" length="0.58" shape="439.65,338.63 440.33,338.65"/>
        <lane id=":62599231_3_1" index="1" disallow="tram rail_urban rail rail_electric rail_fast ship" speed="20.12" length="0.58" shape="439.63,341.83 440.11,341.85"/>
    </edge>
    <edge id=":62599231_5" function="internal">
        <lane id=":62599231_5_0" index="0" disallow="tram rail_urban rail rail_electric rail_fast ship" speed="3.65" length="2.34" shape="439.63,341.83 440.82,342.64 441.22,343.44"/>
    </edge>
    <edge id=":62599231_7" function="internal">
        <lane id=":62599231_7_0" index="0" disallow="tram rail_urban rail rail_electric rail_fast ship" speed="3.65" length="2.34" shape="441.22,343.44 440.81,344.24 439.61,345.03"/>
    </edge>
    <edge id=":62606176_0" function="internal">
        <lane id=":62606176_0_0" index="0" disallow="tram rail_urban rail rail_electric rail_fast ship" speed="7.23" length="12.55" shape="1222.29,597.43 1218.03,596.38 1214.83,596.44 1212.70,597.61 1211.62,599.89"/>
    </edge>
    <edge id=":62606176_1" function="internal">
        <lane id=":62606176_1_0" index="0" disallow="tram rail_urban rail rail_electric rail_fast ship" speed="20.12" length="31.15" shape="1223.32,594.40 1214.00,590.74 1207.19,587.28 1201.35,584.15 1195.01,581.48"/>
        <lane id=":62606176_1_1" index="1" disallow="tram rail_urban rail rail_electric rail_fast ship" speed="20.12" length="31.15" shape="1224.34,591.37 1215.03,587.70 1208.21,584.24 1202.38,581.12 1196.03,578.45"/>
    </edge>
    <edge id=":62606176_3" function="internal">
        <lane id=":62606176_3_0" index="0" disallow="tram rail_urban rail rail_electric rail_fast ship" speed="10.92" length="5.75" shape="1225.36,588.34 1220.32,585.56"/>
    </edge>
    <edge id=":62606176_16" function="internal">
        <lane id=":62606176_16_0" index="0" disallow="tram rail_urban rail rail_electric rail_fast ship" speed="10.92" length="20.87" shape="1220.32,585.56 1219.72,585.24 1216.45,580.52 1215.54,574.20 1216.98,566.26"/>
    </edge>
    <edge id=":62606176_4" function="internal">
        <lane id=":62606176_4_0" index="0" disallow="tram rail_urban rail rail_electric rail_fast ship" speed="7.11" length="11.27" shape="1225.98,569.62 1225.04,573.15 1225.13,575.93 1226.26,577.96 1228.42,579.24"/>
    </edge>
    <edge id=":62606176_5" function="internal">
        <lane id=":62606176_5_0" index="0" disallow="tram rail_urban rail rail_electric rail_fast ship" speed="15.65" length="33.86" shape="1222.98,568.50 1218.78,577.82 1214.49,585.35 1210.84,592.09 1208.53,599.03"/>
    </edge>
    <edge id=":62606176_6" function="internal">
        <lane id=":62606176_6_0" index="0" disallow="tram rail_urban rail rail_electric rail_fast ship" speed="11.34" length="16.71" shape="1219.98,567.38 1216.53,574.59 1211.38,578.83 1209.37,579.21"/>
    </edge>
    <edge id=":62606176_17" function="internal">
        <lane id=":62606176_17_0" index="0" disallow="tram rail_urban rail rail_electric rail_fast ship" speed="11.34" length="13.59" shape="1209.37,579.21 1204.55,580.12 1196.03,578.45"/>
    </edge>
    <edge id=":62606176_7" function="internal">
        <lane id=":62606176_7_0" index="0" disallow="tram rail_urban rail rail_electric rail_fast ship" speed="8.18" length="15.26" shape="1200.12,566.32 1205.59,567.80 1209.72,568.09 1212.52,567.21 1213.98,565.14"/>
    </edge>
    <edge id=":62606176_8" function="internal">
        <lane id=":62606176_8_0" index="0" disallow="tram rail_urban rail rail_electric rail_fast ship" speed="20.12" length="31.16" shape="1200.12,566.32 1208.76,569.76 1214.47,572.84 1220.07,575.90 1228.42,579.24"/>
        <lane id=":62606176_8_1" index="1" disallow="tram rail_urban rail rail_electric rail_fast ship" speed="20.12" length="31.16" shape="1199.10,569.35 1207.74,572.79 1213.45,575.88 1219.05,578.93 1227.40,582.27"/>
        <lane id=":62606176_8_2" index="2" disallow="tram rail_urban rail rail_electric rail_fast ship" speed="20.12" length="31.16" shape="1198.08,572.39 1206.72,575.82 1212.43,578.91 1218.03,581.96 1226.38,585.30"/>
    </edge>
    <edge id=":62606176_11" function="internal">
        <lane id=":62606176_11_0" index="0" disallow="tram rail_urban rail rail_electric rail_fast ship" speed="11.86" length="7.19" shape="1197.05,575.42 1203.41,578.79"/>
    </edge>
    <edge id=":62606176_18" function="internal">
        <lane id=":62606176_18_0" index="0" disallow="tram rail_urban rail rail_electric rail_fast ship" speed="11.86" length="21.88" shape="1203.41,578.79 1207.44,583.85 1209.14,590.59 1208.53,599.03"/>
    </edge>
    <edge id=":62606176_12" function="internal">
        <lane id=":62606176_12_0" index="0" disallow="tram rail_urban rail rail_electric rail_fast ship" speed="8.60" length="14.85" shape="1196.16,595.56 1197.01,589.86 1197.10,585.61 1196.44,582.82 1195.01,581.48"/>
    </edge>
    <edge id=":62606176_13" function="internal">
        <lane id=":62606176_13_0" index="0" disallow="tram rail_urban rail rail_electric rail_fast ship" speed="15.65" length="34.79" shape="1199.25,596.43 1202.52,585.72 1206.76,578.01 1210.92,571.68 1213.98,565.14"/>
    </edge>
    <edge id=":62606176_14" function="internal">
        <lane id=":62606176_14_0" index="0" disallow="tram rail_urban rail rail_electric rail_fast ship" speed="11.78" length="21.10" shape="1202.34,597.30 1205.38,587.50 1210.25,581.86 1213.56,581.09"/>
        <lane id=":62606176_14_1" index="1" disallow="tram rail_urban rail rail_electric rail_fast ship" speed="10.71" length="11.05" shape="1205.44,598.16 1208.09,590.34 1209.99,588.29"/>
    </edge>
    <edge id=":62606176_19" function="internal">
        <lane id=":62606176_19_0" index="0" disallow="tram rail_urban rail rail_electric rail_fast ship" speed="11.78" length="14.16" shape="1213.56,581.09 1217.42,580.19 1227.40,582.27"/>
    </edge>
    <edge id=":62606176_20" function="internal">
        <lane id=":62606176_20_0" index="0" disallow="tram rail_urban rail rail_electric rail_fast ship" speed="10.71" length="17.92" shape="1209.99,588.29 1212.46,585.60 1218.56,583.92 1226.38,585.30"/>
    </edge>
    <edge id=":62606180_0" function="internal">
        <lane id=":62606180_0_0" index="0" disallow="tram rail_urban rail rail_electric rail_fast ship" speed="15.65" length="8.16" shape="1204.78,689.23 1203.38,687.03 1201.79,685.90 1200.26,684.74 1199.05,682.48"/>
        <lane id=":62606180_0_1" index="1" disallow="tram rail_urban rail rail_electric rail_fast ship" speed="15.65" length="8.16" shape="1204.78,689.23 1202.12,681.55"/>
        <lane id=":62606180_0_2" index="2" disallow="tram rail_urban rail rail_electric rail_fast ship" speed="15.65" length="8.16" shape="1207.76,688.06 1205.18,680.62"/>
        <lane id=":62606180_0_3" index="3" disallow="tram rail_urban rail rail_electric rail_fast ship" speed="15.65" length="8.16" shape="1210.74,686.90 1208.24,679.69"/>
    </edge>
    <edge id=":62606180_4" function="internal">
        <lane id=":62606180_4_0" index="0" disallow="tram rail_urban rail rail_electric rail_fast ship" speed="15.65" length="7.24" shape="1214.37,677.84 1216.70,684.56"/>
        <lane id=":62606180_4_1" index="1" disallow="tram rail_urban rail rail_electric rail_fast ship" speed="15.65" length="7.24" shape="1211.30,678.77 1213.72,685.73"/>
    </edge>
    <edge id=":62616800_0" function="internal">
        <lane id=":62616800_0_0" index="0" disallow="tram rail_urban rail rail_electric rail_fast ship" speed="20.12" length="8.04" shape="1164.25,571.14 1156.63,568.55"/>
        <lane id=":62616800_0_1" index="1" disallow="tram rail_urban rail rail_electric rail_fast ship" speed="20.12" length="8.04" shape="1165.27,568.11 1157.68,565.52"/>
    </edge>
    <edge id=":62616800_2" function="internal">
        <lane id=":62616800_2_0" index="0" disallow="tram rail_urban rail rail_electric rail_fast ship" speed="20.12" length="9.09" shape="1159.76,559.47 1162.62,559.40 1164.55,557.74 1166.49,556.07 1169.35,555.98"/>
        <lane id=":62616800_2_1" index="1" disallow="tram rail_urban rail rail_electric rail_fast ship" speed="20.12" length="9.09" shape="1159.76,559.47 1162.24,559.80 1164.04,559.25 1165.85,558.70 1168.33,559.01"/>
        <lane id=":62616800_2_2" index="2" disallow="tram rail_urban rail rail_electric rail_fast ship" speed="20.12" length="9.09" shape="1158.72,562.50 1161.20,562.83 1163.01,562.28 1164.82,561.73 1167.31,562.04"/>
        <lane id=":62616800_2_3" index="3" disallow="tram rail_urban rail rail_electric rail_fast ship" speed="20.12" length="9.09" shape="1158.72,562.50 1166.29,565.08"/>
    </edge>
    <edge id=":J0_0" function="internal">
        <lane id=":J0_0_0" index="0" disallow="tram rail_urban rail rail_electric rail_fast ship" speed="20.12" length="8.54" shape="334.83,347.50 332.36,347.98 330.81,349.07 329.26,350.15 326.80,350.63"/>
        <lane id=":J0_0_1" index="1" disallow="tram rail_urban rail rail_electric rail_fast ship" speed="20.12" length="8.54" shape="334.85,344.30 332.39,344.78 330.84,345.87 329.29,346.95 326.83,347.43"/>
        <lane id=":J0_0_2" index="2" disallow="tram rail_urban rail rail_electric rail_fast ship" speed="20.12" length="8.54" shape="334.85,344.30 326.86,344.23"/>
    </edge>
    <edge id=":cluster_3705291558_62590703_0" function="internal">
        <lane id=":cluster_3705291558_62590703_0_0" index="0" disallow="tram rail_urban rail rail_electric rail_fast ship" speed="20.12" length="10.14" shape="690.49,415.04 687.79,413.60 686.30,411.93 684.81,410.27 682.11,408.83"/>
        <lane id=":cluster_3705291558_62590703_0_1" index="1" disallow="tram rail_urban rail rail_electric rail_fast ship" speed="20.12" length="10.14" shape="691.51,412.01 682.11,408.83"/>
        <lane id=":cluster_3705291558_62590703_0_2" index="2" disallow="tram rail_urban rail rail_electric rail_fast ship" speed="20.12" length="10.14" shape="692.54,408.98 683.14,405.80"/>
    </edge>
    <edge id=":cluster_3705291558_62590703_3" function="internal">
        <lane id=":cluster_3705291558_62590703_3_0" index="0" disallow="tram rail_urban rail rail_electric rail_fast ship" speed="3.65" length="1.44" shape="692.54,408.98 691.66,407.83"/>
    </edge>
    <edge id=":cluster_3705291558_62590703_7" function="internal">
        <lane id=":cluster_3705291558_62590703_7_0" index="0" disallow="tram rail_urban rail rail_electric rail_fast ship" speed="3.65" length="3.23" shape="691.66,407.83 691.53,406.95 692.17,406.32 693.56,405.94"/>
    </edge>
    <edge id=":cluster_3705291558_62590703_4" function="internal">
        <lane id=":cluster_3705291558_62590703_4_0" index="0" disallow="tram rail_urban rail rail_electric rail_fast ship" speed="20.12" length="9.92" shape="685.19,399.73 694.59,402.91"/>
        <lane id=":cluster_3705291558_62590703_4_1" index="1" disallow="tram rail_urban rail rail_electric rail_fast ship" speed="20.12" length="9.92" shape="684.16,402.76 693.56,405.94"/>
    </edge>
    <edge id=":cluster_3705291558_62590703_6" function="internal">
        <lane id=":cluster_3705291558_62590703_6_0" index="0" disallow="tram rail_urban rail rail_electric rail_fast ship" speed="3.65" length="1.44" shape="684.16,402.76 685.04,403.91"/>
    </edge>
    <edge id=":cluster_3705291558_62590703_8" function="internal">
        <lane id=":cluster_3705291558_62590703_8_0" index="0" disallow="tram rail_urban rail rail_electric rail_fast ship" speed="3.65" length="3.23" shape="685.04,403.91 685.17,404.79 684.53,405.42 683.14,405.80"/>
    </edge>
    <edge id=":cluster_62477163_62500824_0" function="internal">
        <lane id=":cluster_62477163_62500824_0_0" index="0" disallow="tram rail_urban rail rail_electric rail_fast ship" speed="6.49" length="9.03" shape="269.01,350.05 266.55,350.37 264.79,351.41 263.74,353.15 263.38,355.60"/>
    </edge>
    <edge id=":cluster_62477163_62500824_1" function="internal">
        <lane id=":cluster_62477163_62500824_1_0" index="0" disallow="tram rail_urban rail rail_electric rail_fast ship" speed="17.89" length="24.31" shape="269.01,350.05 261.55,349.48 256.21,348.36 251.26,347.26 245.00,346.79"/>
        <lane id=":cluster_62477163_62500824_1_1" index="1" disallow="tram rail_urban rail rail_electric rail_fast ship" speed="17.89" length="24.31" shape="269.04,346.85 261.57,346.28 256.21,345.16 251.26,344.06 244.98,343.59"/>
    </edge>
    <edge id=":cluster_62477163_62500824_3" function="internal">
        <lane id=":cluster_62477163_62500824_3_0" index="0" disallow="tram rail_urban rail rail_electric rail_fast ship" speed="11.06" length="7.33" shape="269.07,343.65 262.07,342.45 261.88,342.32"/>
    </edge>
    <edge id=":cluster_62477163_62500824_16" function="internal">
        <lane id=":cluster_62477163_62500824_16_0" index="0" disallow="tram rail_urban rail rail_electric rail_fast ship" speed="11.06" length="20.26" shape="261.88,342.32 257.04,339.02 253.98,333.36 252.90,325.47"/>
    </edge>
    <edge id=":cluster_62477163_62500824_4" function="internal">
        <lane id=":cluster_62477163_62500824_4_0" index="0" disallow="tram rail_urban rail rail_electric rail_fast ship" speed="5.60" length="10.03" shape="267.09,331.14 265.11,333.78 264.79,335.68 266.13,336.84 269.14,337.25"/>
    </edge>
    <edge id=":cluster_62477163_62500824_5" function="internal">
        <lane id=":cluster_62477163_62500824_5_0" index="0" disallow="tram rail_urban rail rail_electric rail_fast ship" speed="16.77" length="29.07" shape="264.69,329.02 260.66,335.87 260.64,342.21 262.32,348.60 263.38,355.60"/>
        <lane id=":cluster_62477163_62500824_5_1" index="1" disallow="tram rail_urban rail rail_electric rail_fast ship" speed="16.77" length="29.07" shape="262.29,326.90 257.83,334.42 257.57,341.44 259.14,348.37 260.18,355.59"/>
    </edge>
    <edge id=":cluster_62477163_62500824_7" function="internal">
        <lane id=":cluster_62477163_62500824_7_0" index="0" disallow="tram rail_urban rail rail_electric rail_fast ship" speed="10.80" length="15.28" shape="259.73,324.65 259.12,332.91 256.46,338.83 256.05,339.13"/>
    </edge>
    <edge id=":cluster_62477163_62500824_17" function="internal">
        <lane id=":cluster_62477163_62500824_17_0" index="0" disallow="tram rail_urban rail rail_electric rail_fast ship" speed="10.80" length="12.27" shape="256.05,339.13 251.74,342.38 244.98,343.59"/>
    </edge>
    <edge id=":cluster_62477163_62500824_8" function="internal">
        <lane id=":cluster_62477163_62500824_8_0" index="0" disallow="tram rail_urban rail rail_electric rail_fast ship" speed="6.23" length="12.93" shape="244.95,333.99 249.59,333.56 252.01,332.32 252.23,330.27 250.24,327.41"/>
    </edge>
    <edge id=":cluster_62477163_62500824_9" function="internal">
        <lane id=":cluster_62477163_62500824_9_0" index="0" disallow="tram rail_urban rail rail_electric rail_fast ship" speed="17.89" length="24.44" shape="244.95,333.99 252.47,334.46 257.87,335.56 262.85,336.69 269.14,337.25"/>
        <lane id=":cluster_62477163_62500824_9_1" index="1" disallow="tram rail_urban rail rail_electric rail_fast ship" speed="17.89" length="24.44" shape="244.96,337.19 252.47,337.66 257.85,338.76 262.83,339.89 269.10,340.45"/>
    </edge>
    <edge id=":cluster_62477163_62500824_11" function="internal">
        <lane id=":cluster_62477163_62500824_11_0" index="0" disallow="tram rail_urban rail rail_electric rail_fast ship" speed="10.35" length="7.35" shape="244.97,340.39 251.64,341.32 252.18,341.64"/>
    </edge>
    <edge id=":cluster_62477163_62500824_18" function="internal">
        <lane id=":cluster_62477163_62500824_18_0" index="0" disallow="tram rail_urban rail rail_electric rail_fast ship" speed="10.35" length="17.20" shape="252.18,341.64 256.40,344.16 259.24,348.92 260.18,355.59"/>
    </edge>
    <edge id=":cluster_62477163_62500824_12" function="internal">
        <lane id=":cluster_62477163_62500824_12_0" index="0" disallow="tram rail_urban rail rail_electric rail_fast ship" speed="7.31" length="11.71" shape="250.58,355.56 250.24,351.71 249.20,348.97 247.45,347.33 245.00,346.79"/>
    </edge>
    <edge id=":cluster_62477163_62500824_13" function="internal">
        <lane id=":cluster_62477163_62500824_13_0" index="0" disallow="tram rail_urban rail rail_electric rail_fast ship" speed="16.77" length="29.10" shape="250.58,355.56 251.51,346.24 253.00,338.93 253.20,332.89 250.24,327.41"/>
        <lane id=":cluster_62477163_62500824_13_1" index="1" disallow="tram rail_urban rail rail_electric rail_fast ship" speed="16.77" length="30.12" shape="253.78,355.57 252.90,325.47"/>
    </edge>
    <edge id=":cluster_62477163_62500824_15" function="internal">